New loadshape.CurvaCARGA npts=144 minterval=10 mult=(0.568 0.563 0.56 0.567 0.562 0.563 0.564 0.556 0.546 0.543 0.541 0.539 0.532 0.53 0.53 0.529 0.532 0.531 0.53 0.527 0.516 0.507 0.502 0.499 0.494 0.493 0.49 0.494 0.497 0.501 0.502 0.509 0.51 0.511 0.506 0.507 0.51 0.507 0.509 0.514 0.523 0.527 0.531 0.535 0.542 0.544 0.545 0.553 0.556 0.561 0.562 0.561 0.562 0.562 0.565 0.567 0.566 0.572 0.579 0.582 0.587 0.588 0.598 0.6 0.599 0.592 0.583 0.576 0.565 0.554 0.544 0.544 0.546 0.544 0.544 0.548 0.549 0.549 0.549 0.564 0.579 0.59 0.609 0.632 0.653 0.667 0.698 0.703 0.705 0.711 0.717 0.721 0.726 0.722 0.702 0.7 0.697 0.696 0.703 0.712 0.734 0.741 0.765 0.771 0.783 0.812 0.878 0.912 0.972 0.985 1 0.99 0.982 0.988 0.978 0.967 0.934 0.912 0.898 0.892 0.89 0.888 0.886 0.885 0.878 0.87 0.843 0.818 0.798 0.756 0.743 0.732 0.724 0.721 0.712 0.705 0.706 0.703 0.692 0.672 0.656 0.632 0.598 0.578)
New loadshape.CurvaGD_CARGA npts=144 minterval=10 mult=(0.568 0.563 0.56 0.567 0.562 0.563 0.564 0.556 0.546 0.543 0.541 0.539 0.532 0.53 0.53 0.529 0.532 0.531 0.53 0.527 0.516 0.507 0.502 0.499 0.494 0.493 0.49 0.494 0.497 0.501 0.502 0.509 0.51 0.511 0.506 0.491 0.471 0.468 0.466 0.461 0.452 0.442 0.431 0.413 0.402 0.387 0.345 0.326 0.256 0.124 0.098 0 0 0 0 0 0 0 0 0 0 0 0 0 0 0 0 0 0 0 0 0 0 0 0 0 0 0 0 0 0 0 0 0 0 0 0 0 0 0 0 0 0 0.04 0.293 0.367 0.489 0.512 0.598 0.612 0.656 0.7 0.71 0.738 0.783 0.812 0.878 0.912 0.972 0.985 1 0.99 0.982 0.988 0.978 0.967 0.934 0.912 0.898 0.892 0.89 0.888 0.886 0.885 0.878 0.87 0.843 0.818 0.798 0.756 0.743 0.732 0.724 0.721 0.712 0.705 0.706 0.703 0.692 0.672 0.656 0.632 0.598 0.578)
New loadshape.CurvaGD_GEN npts=144 minterval=10 mult=(0 0 0 0 0 0 0 0 0 0 0 0 0 0 0 0 0 0 0 0 0 0 0 0 0 0 0 0 0 0 0 0 0 0 0 0 0 0 0 0 0 0 0 0 0 0 0 0 0 0 0 0.04 0.09 0.26 0.3 0.36 0.41 0.43 0.47 0.49 0.55 0.59 0.602 0.61 0.608 0.62 0.63 0.632 0.63 0.631 0.64 0.63 0.634 0.613 0.612 0.602 0.601 0.605 0.6 0.598 0.579 0.567 0.543 0.523 0.45 0.42 0.38 0.32 0.298 0.16 0.11 0.09 0.035 0 0 0 0 0 0 0 0 0 0 0 0 0 0 0 0 0 0 0 0 0 0 0 0 0 0 0 0 0 0 0 0 0 0 0 0 0 0 0 0 0 0 0 0 0 0 0 0 0 0 0)
New loadshape.CurvaIP npts=144 minterval=10 mult=(1 1 1 1 1 1 1 1 1 1 1 1 1 1 1 1 1 1 1 1 1 1 1 1 1 1 1 1 1 1 1 1 1 1 1 0 0 0 0 0 0 0 0 0 0 0 0 0 0 0 0 0 0 0 0 0 0 0 0 0 0 0 0 0 0 0 0 0 0 0 0 0 0 0 0 0 0 0 0 0 0 0 0 0 0 0 0 0 0 0 0 0 0 0 0 0 0 0 0 0 0 0 0 0 0 0 0 1 1 1 1 1 1 1 1 1 1 1 1 1 1 1 1 1 1 1 1 1 1 1 1 1 1 1 1 1 1 1 1 1 1 1 1 1)
New loadshape.CurvaBAT npts=144 minterval=10 mult=(0 0 0 0 0 0 0 0 0 0 0 0 0 0 0 0 0 0 0 0 0 0 0 0 0 0 0 0 0 0 0 0 0 0 0 0 0 0 0 0 0 0 0 0 0 0 0 0 0 0 0 0 0 0 0 0 0 -0.5 -0.5 -1 -1 -1 -1 -1 -1 -1 -1 -1 -1 -1 -1 -1 -1 -1 -1 -1 -1 -1 -1 -1 -1 -1 -1 -1 -1 -1 -1 -1 0 0 0 0 0 0 0 0 0 0 0 0 0 0 0 0 0 0 0.5 0.5 1 1 1 1 1 1 1 1 0.5 0.5 0.5 0.5 0.5 0.5 1 1 1 1 1 1 1 1 1 1 1 1 1 1 1 1 1 1 0 0 0 0)
